53-pubii
                    3D
 Structure written by MMmdl.
 49 52  0  0  1  0            999 V2000
   45.4568  111.7802   13.2339 S   0  0  0  0  0  0
   43.8568  115.5961   15.9140 O   0  0  0  0  0  0
   45.0568  116.8307   13.6565 O   0  0  0  0  0  0
   46.7534  119.7482   16.4339 O   0  0  0  0  0  0
   47.8489  122.7134   16.1665 O   0  5  0  0  0  0
   51.7588  122.6357   13.6339 O   0  0  0  0  0  0
   51.5683  119.8110   13.5126 O   0  0  0  0  0  0
   44.6568  113.8582   17.1457 N   0  0  0  0  0  0
   48.5252  119.5636   17.8580 N   0  0  0  0  0  0
   45.5824  115.8357   11.7276 N   0  0  0  0  0  0
   48.8666  121.9704   15.7181 N   0  0  0  0  0  0
   45.8568  113.5729   11.2866 N   0  0  0  0  0  0
   45.3238  115.6216   18.7402 C   0  0  0  0  0  0
   44.4519  114.4032   18.4871 C   0  0  0  0  0  0
   46.9762  117.8466   18.9291 C   0  0  0  0  0  0
   47.8569  119.0819   19.0694 C   0  0  0  0  0  0
   46.6225  115.4780   19.2339 C   0  0  0  0  0  0
   44.8252  116.8848   18.4281 C   0  0  0  0  0  0
   44.8852  113.8160   14.8005 C   0  0  0  0  0  0
   47.4492  116.5943   19.3288 C   0  0  0  0  0  0
   45.6550  117.9899   18.5041 C   0  0  0  0  0  0
   45.2040  114.3749   13.5266 C   0  0  0  0  0  0
   44.4196  114.5075   15.9823 C   0  0  0  0  0  0
   45.5331  113.3737   12.5933 C   0  0  0  0  0  0
   44.9474  112.4228   14.7458 C   0  0  0  0  0  0
   45.2516  115.7793   13.0531 C   0  0  0  0  0  0
   47.9422  119.9166   16.6965 C   0  0  0  0  0  0
   48.8496  120.5698   15.7747 C   0  0  0  0  0  0
   49.7719  119.8517   15.0706 C   0  0  0  0  0  0
   45.8568  114.7903   10.8792 C   0  0  0  0  0  0
   49.8395  122.6340   15.0114 C   0  0  0  0  0  0
   50.7941  120.4813   14.1977 C   0  0  0  0  0  0
   50.7642  121.9736   14.2821 C   0  0  0  0  0  0
   43.3985  114.6433   18.6399 H   0  0  0  0  0  0
   44.6866  113.6293   19.2195 H   0  0  0  0  0  0
   47.2825  119.8991   19.5114 H   0  0  0  0  0  0
   48.6399  118.8636   19.7934 H   0  0  0  0  0  0
   47.0069  114.5036   19.4993 H   0  0  0  0  0  0
   43.8124  117.0084   18.0729 H   0  0  0  0  0  0
   48.4572  116.4837   19.6992 H   0  0  0  0  0  0
   45.2623  118.9633   18.2490 H   0  0  0  0  0  0
   45.0569  112.9322   17.1084 H   0  0  0  0  0  0
   49.4899  119.8356   17.9730 H   0  0  0  0  0  0
   44.7022  111.7439   15.5444 H   0  0  0  0  0  0
   45.6750  116.7754   11.3517 H   0  0  0  0  0  0
   49.7785  118.7748   15.1599 H   0  0  0  0  0  0
   46.0738  115.0376    9.8460 H   0  0  0  0  0  0
   49.8344  123.7129   15.0951 H   0  0  0  0  0  0
   51.8568  123.5103   14.0640 H   0  0  0  0  0  0
  1 24  1  0  0  0
  1 25  1  0  0  0
  2 23  2  0  0  0
  3 26  2  0  0  0
  4 27  2  0  0  0
  5 11  1  0  0  0
  6 33  1  0  0  0
  6 49  1  0  0  0
  7 32  2  0  0  0
  8 14  1  0  0  0
  8 23  1  0  0  0
  8 42  1  0  0  0
  9 16  1  0  0  0
  9 27  1  0  0  0
  9 43  1  0  0  0
 10 26  1  0  0  0
 10 30  1  0  0  0
 10 45  1  0  0  0
 11 28  1  0  0  0
 11 31  1  0  0  0
 12 24  1  0  0  0
 12 30  2  0  0  0
 13 14  1  0  0  0
 13 17  2  0  0  0
 13 18  1  0  0  0
 14 34  1  0  0  0
 14 35  1  0  0  0
 15 16  1  0  0  0
 15 20  2  0  0  0
 15 21  1  0  0  0
 16 36  1  0  0  0
 16 37  1  0  0  0
 17 20  1  0  0  0
 17 38  1  0  0  0
 18 21  2  0  0  0
 18 39  1  0  0  0
 19 22  1  0  0  0
 19 23  1  0  0  0
 19 25  2  0  0  0
 20 40  1  0  0  0
 21 41  1  0  0  0
 22 24  2  0  0  0
 22 26  1  0  0  0
 25 44  1  0  0  0
 27 28  1  0  0  0
 28 29  2  0  0  0
 29 32  1  0  0  0
 29 46  1  0  0  0
 30 47  1  0  0  0
 31 33  2  0  0  0
 31 48  1  0  0  0
 32 33  1  0  0  0
M  CHG  1   5  -1
M  END
> <s_m_entry_id>
1254

> <s_m_entry_name>
53-pubii.1

> <s_m_Source_Path>
/home/users/mnguyen

> <s_m_Source_File>
53-pubii.sdf

> <i_m_Source_File_Index>
1

> <i_lp_mmshare_version>
37011

> <r_epik_Ionization_Penalty>
  0.0298

> <r_epik_Ionization_Penalty_Charging>
  0.0113

> <r_epik_Ionization_Penalty_Neutral>
  0.0185

> <r_epik_State_Penalty>
  0.0715

> <r_epik_Charging_Adjusted_Penalty>
0.0827887991499856

> <i_epik_Tot_Q>
-1

> <i_epik_Tot_abs_Q>
1

> <i_f3d_flags>
0

> <s_lp_Force_Field>
OPLS3

> <r_lp_Energy>
66.2818683012512

> <b_lp_Chiralities_Consistent>
1

> <s_lp_Variant>
53-pubii-1

> <s_m_source_file>
ligprep_pubii_popraione.maegz

> <i_m_source_file_index>
7

> <s_m_job_name>
glide-dock_XP_5zhn-pubii-poprawione_53-57

> <s_i_glide_gridfile>
glide-grid_5zhn

> <i_i_glide_lignum>
5

> <i_i_glide_rotatable_bonds>
9

> <r_i_docking_score>
-13.3368587380098

> <r_i_glide_ligand_efficiency>
-0.404147234485144

> <r_i_glide_ligand_efficiency_sa>
-1.29631612747311

> <r_i_glide_ligand_efficiency_ln>
-2.96604832877454

> <r_i_glide_gscore>
-13.4083587380098

> <r_i_glide_evdw>
-64.4354248046875

> <r_i_glide_ecoul>
-10.5986766815186

> <r_i_glide_emodel>
-131.420047900797

> <r_i_glide_energy>
-75.0341014862061

> <r_i_glide_einternal>
3.57718205451965

> <i_i_glide_confnum>
1

> <i_i_glide_posenum>
1

> <r_i_glide_eff_state_penalty>
0.0715

> <r_glide_XP_GScore>
-13.4083587380098

> <r_glide_XP_HBond>
-2.61936710284588

> <i_glide_XP_PoseRank>
1

> <PUBCHEM_COMPOUND_CID>
155553325

> <PUBCHEM_CONFORMER_RMSD>
1.2

> <PUBCHEM_CONFORMER_DIVERSEORDER>
1
47
72
119
2
87
29
17
76
114
96
56
35
22
36
64
9
3
126
30
16
113
123
103
26
107
67
32
105
122
108
97
19
40
61
81
23
24
83
111
5
100
85
55
92
88
82
51
11
115
6
91
70
27
84
68
79
10
99
86
112
69
46
63
101
53
33
54
12
109
93
13
31
4
89
74
28
121
116
14
39
77
21
106
117
125
90
25
7
131
65
58
38
132
94
44
62
129
133
41
52
95
34
104
20
120
48
130
8
37
66
124
43
50
78
49
18
15
102
57
110
75
42
98
128
80
127
45
59
73
71
60
118

> <PUBCHEM_MMFF94_PARTIAL_CHARGES>
46
1 -0.08
10 -0.49
11 -0.22
12 -0.58
13 -0.14
14 0.44
15 -0.14
16 0.44
17 -0.15
18 -0.15
19 -0.09
2 -0.57
20 -0.15
21 -0.15
22 -0.09
23 0.72
24 0.17
25 -0.11
26 0.72
27 0.62
28 0.11
29 -0.14
3 -0.57
30 0.45
31 -0.05
32 0.54
33 0.09
38 0.15
39 0.15
4 -0.57
40 0.15
41 0.15
42 0.37
43 0.37
44 0.15
45 0.37
46 0.15
47 0.06
48 0.15
49 0.4
5 -0.38
50 0.45
6 -0.53
7 -0.57
8 -0.73
9 -0.73

> <PUBCHEM_EFFECTIVE_ROTOR_COUNT>
8

> <PUBCHEM_PHARMACOPHORE_FEATURES>
13
1 10 donor
1 2 acceptor
1 3 acceptor
1 4 acceptor
1 5 anion
1 6 donor
1 7 acceptor
1 8 donor
1 9 donor
5 1 19 22 24 25 rings
6 10 12 22 24 26 30 rings
6 11 28 29 31 32 33 rings
6 13 15 17 18 20 21 rings

> <PUBCHEM_HEAVY_ATOM_COUNT>
33

> <PUBCHEM_ATOM_DEF_STEREO_COUNT>
0

> <PUBCHEM_ATOM_UDEF_STEREO_COUNT>
0

> <PUBCHEM_BOND_DEF_STEREO_COUNT>
0

> <PUBCHEM_BOND_UDEF_STEREO_COUNT>
0

> <PUBCHEM_ISOTOPIC_ATOM_COUNT>
0

> <PUBCHEM_COMPONENT_COUNT>
1

> <PUBCHEM_CACTVS_TAUTO_COUNT>
-1

> <PUBCHEM_CONFORMER_ID>
09458E2D00000001

> <PUBCHEM_MMFF94_ENERGY>
73.4783

> <PUBCHEM_FEATURE_SELFOVERLAP>
66.073

> <PUBCHEM_SHAPE_FINGERPRINT>
100830 2 18410298046804881696
10908659 184 18333453131679057097
10917259 128 17908976962258169832
12107183 9 18262783113495502994
12422481 6 18190726545405878986
12655387 17 15141254157832467973
12925494 130 17759527664875393793
12978246 48 18408882923609883125
13165053 371 17400080769694961301
13947947 63 18125697197518089032
14347329 18 18270111439776716050
14790565 3 18338516469193191382
14904385 31 18410290324115936993
14950920 106 17240482464353750851
15150948 74 18342175604872403545
15274700 147 17036153931012311132
15320291 9 18266452109886303980
15406563 47 17823969035998640125
15419008 145 18263349460756778272
15448158 71 18342171120757377347
16112460 7 18409444774426171168
16728433 281 18266475376758303452
16990350 14 18410294727253610482
18393751 57 18335148583695196067
19246450 95 17755549708972256242
19302320 297 18194122910652939690
19309040 13 17703235022741869685
19611394 137 17176028272348100995
20580484 21 17186157566437996749
20764821 26 18264483992862102943
21458453 9 17899733165743238139
23398203 216 18409733975585245973
24771293 8 18200045066235859339
2838139 119 18341611495293752894
3146121 3 18341614769118895281
3146122 72 17611732416025000101
3388396 114 16830923518602816468
437795 96 17898566471805014285
4487111 67 18339077219543693080
4756261 7 18338255829603903187
50080093 196 17823980241382925488
50677037 204 18119802775389546132
5081480 168 17055570859396828623
508180 173 18050034120095665286
59584819 99 16686553742427092273
6036956 94 18190178069613727293
6176135 31 18194679268027292465
6608658 132 17983287411531839295

> <PUBCHEM_SHAPE_MULTIPOLES>
622.85
16
6.67
1.54
9.69
0.46
-0.14
-19.47
-4.83
0.15
0.98
-1.33
-0.01
-0.72

> <PUBCHEM_SHAPE_SELFOVERLAP>
1352.369

> <PUBCHEM_SHAPE_VOLUME>
338.6

> <PUBCHEM_COORDINATE_TYPE>
2
5
10

> <s_m_subgroup_title>
glide-dock_XP_5zhn-pubii-poprawione_53-57_pv1

> <s_m_subgroupid>
glide-dock_XP_5zhn-pubii-poprawione_53-57_pv1

> <b_m_subgroup_collapsed>
0

$$$$
